!-Generator IDFEditor 1.44
!-Option SortedOrder
!-NOTE: All comments with '!-' are ignored by the IDFEditor and are generated automatically.
!-      Use '!' comments if they need to be retained when using the IDFEditor.
!-   ===========  ALL OBJECTS IN CLASS: VERSION ===========

  Version,9.2;

!-   ===========  ALL OBJECTS IN CLASS: SIMULATIONCONTROL ===========

  SimulationControl,
    No,                      !- Do Zone Sizing Calculation
    No,                      !- Do System Sizing Calculation
    No,                      !- Do Plant Sizing Calculation
    Yes,                     !- Run Simulation for Sizing Periods
    Yes;                     !- Run Simulation for Weather File Run Periods

!-   ===========  ALL OBJECTS IN CLASS: BUILDING ===========

  Building,
    CasoBaseUniNivel1,       !- Name
    180,                     !- North Axis {deg}
    City,                    !- Terrain
    0.04,                    !- Loads Convergence Tolerance Value
    0.4,                     !- Temperature Convergence Tolerance Value {deltaC}
    FullInteriorAndExterior, !- Solar Distribution
    25,                      !- Maximum Number of Warmup Days
    6;                       !- Minimum Number of Warmup Days

!-   ===========  ALL OBJECTS IN CLASS: SHADOWCALCULATION ===========

  ShadowCalculation,
    AverageOverDaysInFrequency,  !- Calculation Method
    7,                       !- Calculation Frequency
    15000;                   !- Maximum Figures in Shadow Overlap Calculations

!-   ===========  ALL OBJECTS IN CLASS: SURFACECONVECTIONALGORITHM:INSIDE ===========

  SurfaceConvectionAlgorithm:Inside,TARP;

!-   ===========  ALL OBJECTS IN CLASS: SURFACECONVECTIONALGORITHM:OUTSIDE ===========

  SurfaceConvectionAlgorithm:Outside,TARP;

!-   ===========  ALL OBJECTS IN CLASS: HEATBALANCEALGORITHM ===========

  HeatBalanceAlgorithm,ConductionTransferFunction,200;

!-   ===========  ALL OBJECTS IN CLASS: ZONEAIRHEATBALANCEALGORITHM ===========

  ZoneAirHeatBalanceAlgorithm,
    AnalyticalSolution;      !- Algorithm

!-   ===========  ALL OBJECTS IN CLASS: TIMESTEP ===========

  Timestep,6;

!-   ===========  ALL OBJECTS IN CLASS: SITE:LOCATION ===========

  Site:Location,
    Sao Paulo,               !- Name
    -23.62,                  !- Latitude {deg}
    -46.65,                  !- Longitude {deg}
    -3.0,                    !- Time Zone {hr}
    802;                     !- Elevation {m}

!-   ===========  ALL OBJECTS IN CLASS: RUNPERIOD ===========

  RunPeriod,
    RUNPERIOD 1,             !- Name
    1,                       !- Begin Month
    1,                       !- Begin Day of Month
    12,                      !- Begin Year
    31,                      !- End Month
    UseWeatherFile,          !- End Day of Month
    No,                      !- End Year
    No,                      !- Day of Week for Start Day
    No,                      !- Use Weather File Holidays and Special Days
    No,                      !- Use Weather File Daylight Saving Period
    ;                        !- Apply Weekend Holiday Rule

!-   ===========  ALL OBJECTS IN CLASS: SITE:GROUNDTEMPERATURE:SHALLOW ===========

  Site:GroundTemperature:Shallow,19.64,20.55,20.97,20.96,20.22,19.18,18.08,17.15,16.69,16.81,17.48,18.5;

!-   ===========  ALL OBJECTS IN CLASS: SITE:GROUNDDOMAIN:SLAB ===========

  Site:GroundDomain:Slab,
    slab integrado on grade, !- Name
    5,                       !- Ground Domain Depth {m}
    1,                       !- Aspect Ratio
    5,                       !- Perimeter Offset {m}
    1.5,                     !- Soil Thermal Conductivity {W/m-K}
    1400,                    !- Soil Density {kg/m3}
    1400,                    !- Soil Specific Heat {J/kg-K}
    30,                      !- Soil Moisture Content Volume Fraction {percent}
    50,                      !- Soil Moisture Content Volume Fraction at Saturation {percent}
    ,                        !- Undisturbed Ground Temperature Model Type
    ,                        !- Undisturbed Ground Temperature Model Name
    ,                        !- Evapotranspiration Ground Cover Parameter
    0.4,                     !- Slab Boundary Condition Model Name
    GroundCoupledOSCM,       !- Slab Location
    OnGrade,                 !- Slab Material Name
    ,                        !- Horizontal Insulation
    No,                      !- Horizontal Insulation Material Name
    ,                        !- Horizontal Insulation Extents
    ,                        !- Perimeter Insulation Width {m}
    ,                        !- Vertical Insulation
    No,                      !- Vertical Insulation Material Name
    ,                        !- Vertical Insulation Depth {m}
    ,                        !- Simulation Timestep
    Timestep;                !- Geometric Mesh Coefficient

!-   ===========  ALL OBJECTS IN CLASS: SITE:GROUNDREFLECTANCE ===========

  Site:GroundReflectance,0.2,0.2,0.2,0.2,0.2,0.2,0.2,0.2,0.2,0.2,0.2,0.2;

!-   ===========  ALL OBJECTS IN CLASS: SCHEDULETYPELIMITS ===========

  ScheduleTypeLimits,
    BrasilperfilFracao,      !- Name
    0,                       !- Lower Limit Value
    1,                       !- Upper Limit Value
    Continuous,              !- Numeric Type
    Dimensionless;           !- Unit Type

  ScheduleTypeLimits,
    BrasilPerfilNiveldeatividade,  !- Name
    0,                       !- Lower Limit Value
    1000,                    !- Upper Limit Value
    Continuous,              !- Numeric Type
    activitylevel;           !- Unit Type

  ScheduleTypeLimits,
    BrasilperfilQualquer,    !- Name
    0,                       !- Lower Limit Value
    1000,                    !- Upper Limit Value
    Continuous,              !- Numeric Type
    dimensionless;           !- Unit Type

  ScheduleTypeLimits,
    Brasiltemperaturaambientes,  !- Name
    -60,                     !- Lower Limit Value
    200,                     !- Upper Limit Value
    Continuous,              !- Numeric Type
    Temperature;             !- Unit Type

!-   ===========  ALL OBJECTS IN CLASS: SCHEDULE:COMPACT ===========

  Schedule:Compact,
    Brasilperfilatividadesala,  !- Name
    BrasilPerfilNiveldeatividade,  !- Schedule Type Limits Name
    Through: 12/31,          !- Field 1
    For: AllDays,            !- Field 2
    Until: 24:00,108;        !- Field 3

  Schedule:Compact,
    Brasilperfilatividadequartos,  !- Name
    BrasilPerfilNiveldeatividade,  !- Schedule Type Limits Name
    Through: 12/31,          !- Field 1
    For: AllDays,            !- Field 2
    Until: 24:00,81;         !- Field 3

  Schedule:Compact,
    geladeira,               !- Name
    BrasilperfilFracao,      !- Schedule Type Limits Name
    Through: 12/31,          !- Field 1
    For: AllDays,            !- Field 2
    Until: 24:00,1;          !- Field 3

  Schedule:Compact,
    Brasilperfililuminacaoquartos,  !- Name
    BrasilperfilFracao,      !- Schedule Type Limits Name
    Through: 12/31,          !- Field 1
    For: WeekDays,           !- Field 2
    Until: 6:00,0,           !- Field 3
    Until: 07:00,1,          !- Field 5
    Until: 20:00,0,          !- Field 7
    Until: 22:00,1,          !- Field 9
    Until: 24:00,0,          !- Field 11
    For: AllOtherDays,       !- Field 13
    Until: 08:00,0,          !- Field 14
    Until: 22:00,1,          !- Field 16
    Until: 24:00,0;          !- Field 18

  Schedule:Compact,
    Brasilperfilinfiltracao, !- Name
    BrasilperfilFracao,      !- Schedule Type Limits Name
    Through: 12/31,          !- Field 1
    For: AllDays,            !- Field 2
    Until: 24:00,1;          !- Field 3

  Schedule:Compact,
    Brasilperfilocupacaoestar,  !- Name
    BrasilperfilFracao,      !- Schedule Type Limits Name
    Through: 12/31,          !- Field 1
    For: WeekDays,           !- Field 2
    Until: 07:00,0,          !- Field 3
    Until: 08:00,.75,        !- Field 5
    Until: 13:00,0,          !- Field 7
    Until: 18:00,.25,        !- Field 9
    Until: 19:00,1,          !- Field 11
    Until: 21:00,.5,         !- Field 13
    Until: 24:00,0,          !- Field 15
    For: AllOtherDays,       !- Field 17
    Until: 08:00,0,          !- Field 18
    Until: 09:00,0,          !- Field 20
    Until: 10:00,.25,        !- Field 22
    Until: 11:00,.75,        !- Field 24
    Until: 12:00,.75,        !- Field 26
    Until: 13:00,0,          !- Field 28
    Until: 14:00,.75,        !- Field 30
    Until: 17:00,.5,         !- Field 32
    Until: 19:00,.25,        !- Field 34
    Until: 21:00,.5,         !- Field 36
    Until: 24:00,0;          !- Field 38

  Schedule:Compact,
    Brasilperfilocupacaoquartos,  !- Name
    BrasilperfilFracao,      !- Schedule Type Limits Name
    Through: 12/31,          !- Field 1
    For: WeekDays,           !- Field 2
    Until: 7:00,1,           !- Field 3
    Until: 20:00,0,          !- Field 5
    Until: 21:00,0.5,        !- Field 7
    Until: 24:00,1,          !- Field 9
    For: AllOtherDays,       !- Field 11
    Until: 9:00,1,           !- Field 12
    Until: 10:00,.5,         !- Field 14
    Until: 20:00,0,          !- Field 16
    Until: 21:00,.5,         !- Field 18
    Until: 24:00,1;          !- Field 20

  Schedule:Compact,
    ACBrasilperfilventilacaoquartos,  !- Name
    BrasilperfilQualquer,    !- Schedule Type Limits Name
    Through: 12/31,          !- Field 1
    For: AllDays,            !- Field 2
    Until: 09:00,0,          !- Field 3
    Until: 20:00,1,          !- Field 5
    Until: 24:00,0;          !- Field 7

  Schedule:Compact,
    Brasilperfililuminacaoestar,  !- Name
    BrasilperfilFracao,      !- Schedule Type Limits Name
    Through: 12/31,          !- Field 1
    For: WeekDays,           !- Field 2
    Until: 07:00,0,          !- Field 3
    Until: 08:00,.33,        !- Field 5
    Until: 17:00,0,          !- Field 7
    Until: 18:00,.66,        !- Field 9
    Until: 21:00,1,          !- Field 11
    Until: 24:00,0,          !- Field 13
    For: AllOtherDays,       !- Field 15
    Until: 08:00,0,          !- Field 16
    Until: 09:00,.33,        !- Field 18
    Until: 10:00,0,          !- Field 20
    Until: 17:00,0,          !- Field 22
    Until: 18:00,.66,        !- Field 24
    Until: 21:00,1,          !- Field 26
    Until: 24:00,0;          !- Field 28

  Schedule:Compact,
    ACBrasilperfilventilacaoestar,  !- Name
    BrasilperfilQualquer,    !- Schedule Type Limits Name
    Through: 12/31,          !- Field 1
    For: AllDays,            !- Field 2
    Until: 09:00,0,          !- Field 3
    Until: 20:00,1,          !- Field 5
    Until: 24:00,0;          !- Field 7

  Schedule:Compact,
    Brasilperfilventilacaobwc,  !- Name
    BrasilperfilQualquer,    !- Schedule Type Limits Name
    Through: 12/31,          !- Field 1
    For: AllDays,            !- Field 2
    Until: 24:00,1;          !- Field 3

  Schedule:Compact,
    Brasiltempsetpointventilacaonatural,  !- Name
    BrasilperfilQualquer,    !- Schedule Type Limits Name
    Through: 12/31,          !- Field 1
    For: AllDays,            !- Field 2
    Until: 24:00,20;         !- Field 3

  Schedule:Compact,
    Brasilthermostatcooling, !- Name
    Brasiltemperaturaambientes,  !- Schedule Type Limits Name
    Through: 12/31,          !- Field 1
    For: AllDays,            !- Field 2
    Until: 08:00,1,          !- Field 3
    Until: 21:00,0,          !- Field 5
    Until: 24:00,1;          !- Field 7

  Schedule:Compact,
    Brasilthermostatheating, !- Name
    Brasiltemperaturaambientes,  !- Schedule Type Limits Name
    Through: 12/31,          !- Field 1
    For: AllDays,            !- Field 2
    Until: 08:00,1,          !- Field 3
    Until: 21:00,0,          !- Field 5
    Until: 24:00,1;          !- Field 7

  Schedule:Compact,
    Brasilalwayson,          !- Name
    BrasilperfilFracao,      !- Schedule Type Limits Name
    Through: 12/31,          !- Field 1
    For: AllDays,            !- Field 2
    Until: 24:00,1;          !- Field 3

  Schedule:Compact,
    Brasilalwaysoff,         !- Name
    BrasilperfilFracao,      !- Schedule Type Limits Name
    Through: 12/31,          !- Field 1
    For: AllDays,            !- Field 2
    Until: 24:00,0;          !- Field 3

  Schedule:Compact,
    schveneziana,            !- Name
    BrasilperfilFracao,      !- Schedule Type Limits Name
    Through: 3/20,           !- Field 1
    For: AllDays,            !- Field 2
    Until: 8:00,0,           !- Field 3
    Until: 18:00,1,          !- Field 5
    Until: 24:00,0,          !- Field 7
    Through: 8/20,           !- Field 9
    For: AllDays,            !- Field 10
    Until: 7:00,0,           !- Field 11
    Until: 16:00,0,          !- Field 13
    Until: 24:00,0,          !- Field 15
    Through: 9/20,           !- Field 17
    For: AllDays,            !- Field 18
    Until: 24:00,0,          !- Field 19
    Through: 12/31,          !- Field 21
    For: AllDays,            !- Field 22
    Until: 8:00,0,           !- Field 23
    Until: 18:00,1,          !- Field 25
    Until: 24:00,0;          !- Field 27

  Schedule:Compact,
    televisao,               !- Name
    BrasilperfilFracao,      !- Schedule Type Limits Name
    Through: 12/31,          !- Field 1
    For: AllDays,            !- Field 2
    Until: 17:00,0,          !- Field 3
    Until: 22:00,1,          !- Field 5
    Until: 24:00,0;          !- Field 7

  Schedule:Compact,
    aparelhosom,             !- Name
    BrasilperfilFracao,      !- Schedule Type Limits Name
    Through: 12/31,          !- Field 1
    For: AllDays,            !- Field 2
    Until: 21:00,0,          !- Field 3
    Until: 23:00,1,          !- Field 5
    Until: 24:00,0;          !- Field 7

  Schedule:Compact,
    computador,              !- Name
    BrasilperfilFracao,      !- Schedule Type Limits Name
    Through: 12/31,          !- Field 1
    For: AllDays,            !- Field 2
    Until: 19:00,0,          !- Field 3
    Until: 21:12,1,          !- Field 5
    Until: 24:00,0;          !- Field 7

  Schedule:Compact,
    maquinalavaroupa,        !- Name
    BrasilperfilFracao,      !- Schedule Type Limits Name
    Through: 12/31,          !- Field 1
    For: WeekDays,           !- Field 2
    Until: 24:00,0,          !- Field 3
    For: AllOtherDays,       !- Field 5
    Until: 14:00,0,          !- Field 6
    Until: 15:26,1,          !- Field 8
    Until: 24:00,0;          !- Field 10

  Schedule:Compact,
    ferrosch,                !- Name
    BrasilperfilFracao,      !- Schedule Type Limits Name
    Through: 12/31,          !- Field 1
    For: WeekDays,           !- Field 2
    Until: 24:00,0,          !- Field 3
    For: AllOtherDays,       !- Field 5
    Until: 14:00,0,          !- Field 6
    Until: 15:15,1,          !- Field 8
    Until: 24:00,0;          !- Field 10

  Schedule:Compact,
    iluminacaobwc,           !- Name
    BrasilperfilFracao,      !- Schedule Type Limits Name
    Through: 12/31,          !- Field 1
    For: WeekDays,           !- Field 2
    Until: 7:00,0,           !- Field 3
    Until: 07:30,1,          !- Field 5
    Until: 20:00,0,          !- Field 7
    Until: 20:30,1,          !- Field 9
    Until: 24:00,0,          !- Field 11
    For: AllOtherDays,       !- Field 13
    Until: 09:00,0,          !- Field 14
    Until: 09:30,1,          !- Field 16
    Until: 20:00,0,          !- Field 18
    Until: 20:30,1,          !- Field 20
    Until: 24:00,0;          !- Field 22

  Schedule:Compact,
    ocupacaoobwc,            !- Name
    BrasilperfilFracao,      !- Schedule Type Limits Name
    Through: 12/31,          !- Field 1
    For: WeekDays,           !- Field 2
    Until: 7:00,0,           !- Field 3
    Until: 07:30,1,          !- Field 5
    Until: 20:00,0,          !- Field 7
    Until: 20:30,1,          !- Field 9
    Until: 24:00,0,          !- Field 11
    For: AllOtherDays,       !- Field 13
    Until: 09:00,0,          !- Field 14
    Until: 09:30,1,          !- Field 16
    Until: 20:00,0,          !- Field 18
    Until: 20:30,1,          !- Field 20
    Until: 24:00,0;          !- Field 22

  Schedule:Compact,
    Brasilperfilatividadebwc,!- Name
    BrasilPerfilNiveldeatividade,  !- Schedule Type Limits Name
    Through: 12/31,          !- Field 1
    For: AllDays,            !- Field 2
    Until: 24:00,108;        !- Field 3

!-   ===========  ALL OBJECTS IN CLASS: MATERIAL ===========

  Material,
    BrasilLajeConcretopiso5cm,  !- Name
    Rough,                   !- Roughness
    0.05,                    !- Thickness {m}
    1.75,                    !- Conductivity {W/m-K}
    2300,                    !- Density {kg/m3}
    1000,                    !- Specific Heat {J/kg-K}
    0.9,                     !- Thermal Absorptance
    0.7,                     !- Solar Absorptance
    0.7;                     !- Visible Absorptance

  Material,
    BrasilPisoCeramicacorclara,  !- Name
    Rough,                   !- Roughness
    0.01,                    !- Thickness {m}
    1.05,                    !- Conductivity {W/m-K}
    1900,                    !- Density {kg/m3}
    920,                     !- Specific Heat {J/kg-K}
    0.9,                     !- Thermal Absorptance
    0.4,                     !- Solar Absorptance
    0.4;                     !- Visible Absorptance

  Material,
    BrasilPortaMadeira,      !- Name
    Rough,                   !- Roughness
    0.005,                   !- Thickness {m}
    0.23,                    !- Conductivity {W/m-K}
    675,                     !- Density {kg/m3}
    1340,                    !- Specific Heat {J/kg-K}
    0.9,                     !- Thermal Absorptance
    0.7,                     !- Solar Absorptance
    0.7;                     !- Visible Absorptance

  Material,
    BrasilReboco2cm,         !- Name
    Rough,                   !- Roughness
    0.02,                    !- Thickness {m}
    1.15,                    !- Conductivity {W/m-K}
    1950,                    !- Density {kg/m3}
    1000,                    !- Specific Heat {J/kg-K}
    0.9,                     !- Thermal Absorptance
    0.6,                     !- Solar Absorptance
    0.6;                     !- Visible Absorptance

  Material,
    BrasilTelhaBarrocornatural,  !- Name
    Rough,                   !- Roughness
    0.01,                    !- Thickness {m}
    1.05,                    !- Conductivity {W/m-K}
    1900,                    !- Density {kg/m3}
    920,                     !- Specific Heat {J/kg-K}
    0.9,                     !- Thermal Absorptance
    0.6,                     !- Solar Absorptance
    0.6;                     !- Visible Absorptance

  Material,
    BrasilTijolo6furosde9x14x19,  !- Name
    Rough,                   !- Roughness
    0.0207,                  !- Thickness {m}
    0.9,                     !- Conductivity {W/m-K}
    1427.57,                 !- Density {kg/m3}
    920,                     !- Specific Heat {J/kg-K}
    0.9,                     !- Thermal Absorptance
    0.7,                     !- Solar Absorptance
    0.7;                     !- Visible Absorptance

  Material,
    Brasilbrita3cm,          !- Name
    Rough,                   !- Roughness
    0.03,                    !- Thickness {m}
    0.7,                     !- Conductivity {W/m-K}
    1250,                    !- Density {kg/m3}
    800,                     !- Specific Heat {J/kg-K}
    0.9,                     !- Thermal Absorptance
    0.8,                     !- Solar Absorptance
    0.8;                     !- Visible Absorptance

  Material,
    BrasilPortaMetal,        !- Name
    Rough,                   !- Roughness
    0.002,                   !- Thickness {m}
    55,                      !- Conductivity {W/m-K}
    7800,                    !- Density {kg/m3}
    460,                     !- Specific Heat {J/kg-K}
    0.9,                     !- Thermal Absorptance
    0.6,                     !- Solar Absorptance
    0.6;                     !- Visible Absorptance

  Material,
    Brasilargamassaderegularizacao2cm,  !- Name
    Rough,                   !- Roughness
    0.02,                    !- Thickness {m}
    1.15,                    !- Conductivity {W/m-K}
    1950,                    !- Density {kg/m3}
    1000,                    !- Specific Heat {J/kg-K}
    0.9,                     !- Thermal Absorptance
    0.7,                     !- Solar Absorptance
    0.7;                     !- Visible Absorptance

  Material,
    pinuseucalipnativas22mm, !- Name
    Rough,                   !- Roughness
    0.022,                   !- Thickness {m}
    0.15,                    !- Conductivity {W/m-K}
    510,                     !- Density {kg/m3}
    1340,                    !- Specific Heat {J/kg-K}
    0.9,                     !- Thermal Absorptance
    0.6,                     !- Solar Absorptance
    0.6;                     !- Visible Absorptance

  Material,
    BrasilTijolo8furosde11x19x19,  !- Name
    Rough,                   !- Roughness
    0.0365,                  !- Thickness {m}
    0.9,                     !- Conductivity {W/m-K}
    816.14,                  !- Density {kg/m3}
    920,                     !- Specific Heat {J/kg-K}
    0.9,                     !- Thermal Absorptance
    0.7,                     !- Solar Absorptance
    0.7;                     !- Visible Absorptance

  Material,
    BrasilTelhaBarrocorclara,!- Name
    Rough,                   !- Roughness
    0.01,                    !- Thickness {m}
    1.05,                    !- Conductivity {W/m-K}
    1900,                    !- Density {kg/m3}
    920,                     !- Specific Heat {J/kg-K}
    0.9,                     !- Thermal Absorptance
    0.5,                     !- Solar Absorptance
    0.5;                     !- Visible Absorptance

  Material,
    BrasilTijolo9furosde14x19x19,  !- Name
    Rough,                   !- Roughness
    0.0799,                  !- Thickness {m}
    0.9,                     !- Conductivity {W/m-K}
    453.05,                  !- Density {kg/m3}
    920,                     !- Specific Heat {J/kg-K}
    0.9,                     !- Thermal Absorptance
    0.7,                     !- Solar Absorptance
    0.7;                     !- Visible Absorptance

  Material,
    telhametalbranca,        !- Name
    MediumRough,             !- Roughness
    0.006,                   !- Thickness {m}
    55,                      !- Conductivity {W/m-K}
    7800,                    !- Density {kg/m3}
    460,                     !- Specific Heat {J/kg-K}
    0.9,                     !- Thermal Absorptance
    0.3,                     !- Solar Absorptance
    0.3;                     !- Visible Absorptance

  Material,
    lajeeps,                 !- Name
    MediumRough,             !- Roughness
    0.008,                   !- Thickness {m}
    0.04,                    !- Conductivity {W/m-K}
    1675.5,                  !- Density {kg/m3}
    1420,                    !- Specific Heat {J/kg-K}
    0.9,                     !- Thermal Absorptance
    0.2,                     !- Solar Absorptance
    0.2;                     !- Visible Absorptance

  Material,
    lajeconcreto,            !- Name
    Rough,                   !- Roughness
    0.04,                    !- Thickness {m}
    1.75,                    !- Conductivity {W/m-K}
    2300,                    !- Density {kg/m3}
    1000,                    !- Specific Heat {J/kg-K}
    0.9,                     !- Thermal Absorptance
    0.7,                     !- Solar Absorptance
    0.7;                     !- Visible Absorptance

  Material,
    lajeargamassa,           !- Name
    Rough,                   !- Roughness
    0.01,                    !- Thickness {m}
    1.15,                    !- Conductivity {W/m-K}
    1950,                    !- Density {kg/m3}
    1000,                    !- Specific Heat {J/kg-K}
    0.9,                     !- Thermal Absorptance
    0.7,                     !- Solar Absorptance
    0.7;                     !- Visible Absorptance

  Material,
    BrasilForromadeira,      !- Name
    Rough,                   !- Roughness
    0.01,                    !- Thickness {m}
    0.15,                    !- Conductivity {W/m-K}
    510,                     !- Density {kg/m3}
    1340,                    !- Specific Heat {J/kg-K}
    0.9,                     !- Thermal Absorptance
    0.3,                     !- Solar Absorptance
    0.3;                     !- Visible Absorptance

  Material,
    BrasilForroPVC2,         !- Name
    Rough,                   !- Roughness
    0.0283,                  !- Thickness {m}
    0.2,                     !- Conductivity {W/m-K}
    96.61,                   !- Density {kg/m3}
    960,                     !- Specific Heat {J/kg-K}
    0.9,                     !- Thermal Absorptance
    0.3,                     !- Solar Absorptance
    0.3;                     !- Visible Absorptance

  Material,
    concretoparede10cm,      !- Name
    Rough,                   !- Roughness
    0.1,                     !- Thickness {m}
    1.75,                    !- Conductivity {W/m-K}
    2300,                    !- Density {kg/m3}
    1000,                    !- Specific Heat {J/kg-K}
    0.9,                     !- Thermal Absorptance
    0.6,                     !- Solar Absorptance
    0.6;                     !- Visible Absorptance

  Material,
    telhafibrocimento,       !- Name
    Rough,                   !- Roughness
    0.08,                    !- Thickness {m}
    0.95,                    !- Conductivity {W/m-K}
    2000,                    !- Density {kg/m3}
    840,                     !- Specific Heat {J/kg-K}
    0.9,                     !- Thermal Absorptance
    0.7,                     !- Solar Absorptance
    0.7;                     !- Visible Absorptance

!-   ===========  ALL OBJECTS IN CLASS: MATERIAL:NOMASS ===========

  Material:NoMass,
    laderocha25mm,           !- Name
    Smooth,                  !- Roughness
    0.55,                    !- Thermal Resistance {m2-K/W}
    0.9,                     !- Thermal Absorptance
    0.7,                     !- Solar Absorptance
    0.7;                     !- Visible Absorptance

  Material:NoMass,
    laderocha5cm,            !- Name
    Smooth,                  !- Roughness
    1.111,                   !- Thermal Resistance {m2-K/W}
    0.9,                     !- Thermal Absorptance
    0.7,                     !- Solar Absorptance
    0.7;                     !- Visible Absorptance

  Material:NoMass,
    laderocha7cm,            !- Name
    Smooth,                  !- Roughness
    1.84,                    !- Thermal Resistance {m2-K/W}
    0.9,                     !- Thermal Absorptance
    0.7,                     !- Solar Absorptance
    0.7;                     !- Visible Absorptance

!-   ===========  ALL OBJECTS IN CLASS: MATERIAL:AIRGAP ===========

  Material:AirGap,
    BrasilCamaradeFluxohorizontal2a5cm,  !- Name
    0.16;                    !- Thermal Resistance {m2-K/W}

  Material:AirGap,
    BrasilCamaradeFluxohorizontal1a2cm,  !- Name
    0.14;                    !- Thermal Resistance {m2-K/W}

  Material:AirGap,
    BrasilCamaraarFluxodescendentealtaemis>5cm,  !- Name
    0.21;                    !- Thermal Resistance {m2-K/W}

  Material:AirGap,
    Brasil_Camara de Fluxo horizontal >5 cm,  !- Name
    0.17;                    !- Thermal Resistance {m2-K/W}

!-   ===========  ALL OBJECTS IN CLASS: MATERIAL:ROOFVEGETATION ===========

  Material:RoofVegetation,
    baseecoroof,             !- Name
    0.2,                     !- Height of Plants {m}
    1,                       !- Leaf Area Index {dimensionless}
    0.22,                    !- Leaf Reflectivity {dimensionless}
    0.95,                    !- Leaf Emissivity
    180,                     !- Minimum Stomatal Resistance {s/m}
    Green Roof Soil,         !- Soil Layer Name
    MediumRough,             !- Roughness
    0.1,                     !- Thickness {m}
    0.35,                    !- Conductivity of Dry Soil {W/m-K}
    1100,                    !- Density of Dry Soil {kg/m3}
    1200,                    !- Specific Heat of Dry Soil {J/kg-K}
    0.9,                     !- Thermal Absorptance
    0.7,                     !- Solar Absorptance
    0.75,                    !- Visible Absorptance
    0.3,                     !- Saturation Volumetric Moisture Content of the Soil Layer
    0.01,                    !- Residual Volumetric Moisture Content of the Soil Layer
    0.1,                     !- Initial Volumetric Moisture Content of the Soil Layer
    Simple;                  !- Moisture Diffusion Calculation Method

!-   ===========  ALL OBJECTS IN CLASS: WINDOWMATERIAL:GLAZING ===========

  WindowMaterial:Glazing,
    BrasilVidrosimples3mm,   !- Name
    SpectralAverage,         !- Optical Data Type
    ,                        !- Window Glass Spectral Data Set Name
    0.00299999999999999,     !- Thickness {m}
    0.837,                   !- Solar Transmittance at Normal Incidence
    0.075,                   !- Front Side Solar Reflectance at Normal Incidence