!-Generator IDFEditor 1.51
!-Option SortedOrder

!-NOTE: All comments with '!-' are ignored by the IDFEditor and are generated automatically.
!-      Use '!' comments if they need to be retained when using the IDFEditor.


!-   ===========  ALL OBJECTS IN CLASS: VERSION ===========

Version,
    22.1;                    !- Version Identifier


!-   ===========  ALL OBJECTS IN CLASS: SIMULATIONCONTROL ===========

SimulationControl,
    No,                      !- Do Zone Sizing Calculation
    No,                      !- Do System Sizing Calculation
    No,                      !- Do Plant Sizing Calculation
    No,                      !- Run Simulation for Sizing Periods
    Yes,                     !- Run Simulation for Weather File Run Periods
    No,                      !- Do HVAC Sizing Simulation for Sizing Periods
    1;                       !- Maximum Number of HVAC Sizing Simulation Passes


!-   ===========  ALL OBJECTS IN CLASS: BUILDING ===========

Building,
    edificacao,              !- Name
    0,                       !- North Axis {deg}
    City,                    !- Terrain
    0.04,                    !- Loads Convergence Tolerance Value {W}
    0.4,                     !- Temperature Convergence Tolerance Value {deltaC}
    FullExteriorWithReflections,  !- Solar Distribution
    25,                      !- Maximum Number of Warmup Days
    6;                       !- Minimum Number of Warmup Days


!-   ===========  ALL OBJECTS IN CLASS: TIMESTEP ===========

Timestep,
    6;                       !- Number of Timesteps per Hour


!-   ===========  ALL OBJECTS IN CLASS: RUNPERIOD ===========

RunPeriod,
    ano,                     !- Name
    1,                       !- Begin Month
    1,                       !- Begin Day of Month
    ,                        !- Begin Year
    12,                      !- End Month
    31,                      !- End Day of Month
    ,                        !- End Year
    Monday,                  !- Day of Week for Start Day
    No,                      !- Use Weather File Holidays and Special Days
    No,                      !- Use Weather File Daylight Saving Period
    No,                      !- Apply Weekend Holiday Rule
    No,                      !- Use Weather File Rain Indicators
    No;                      !- Use Weather File Snow Indicators


!-   ===========  ALL OBJECTS IN CLASS: SITE:GROUNDTEMPERATURE:UNDISTURBED:FINITEDIFFERENCE ===========

Site:GroundTemperature:Undisturbed:FiniteDifference,
    groundtemp_finitediff,   !- Name
    1,                       !- Soil Thermal Conductivity {W/m-K}
    1250,                    !- Soil Density {kg/m3}
    1200,                    !- Soil Specific Heat {J/kg-K}
    30,                      !- Soil Moisture Content Volume Fraction {percent}
    50,                      !- Soil Moisture Content Volume Fraction at Saturation {percent}
    0.4;                     !- Evapotranspiration Ground Cover Parameter {dimensionless}


!-   ===========  ALL OBJECTS IN CLASS: SITE:GROUNDDOMAIN:SLAB ===========

Site:GroundDomain:Slab,
    grounddomain_slab,       !- Name
    10,                      !- Ground Domain Depth {m}
    1,                       !- Aspect Ratio
    5,                       !- Perimeter Offset {m}
    1,                       !- Soil Thermal Conductivity {W/m-K}
    1250,                    !- Soil Density {kg/m3}
    1200,                    !- Soil Specific Heat {J/kg-K}
    30,                      !- Soil Moisture Content Volume Fraction {percent}
    50,                      !- Soil Moisture Content Volume Fraction at Saturation {percent}
    Site:GroundTemperature:Undisturbed:FiniteDifference,  !- Undisturbed Ground Temperature Model Type
    groundtemp_finitediff,   !- Undisturbed Ground Temperature Model Name
    0.4,                     !- Evapotranspiration Ground Cover Parameter
    ground_coupled_oscm,     !- Slab Boundary Condition Model Name
    OnGrade,                 !- Slab Location
    ,                        !- Slab Material Name
    No,                      !- Horizontal Insulation
    ,                        !- Horizontal Insulation Material Name
    Full,                    !- Horizontal Insulation Extents
    ,                        !- Perimeter Insulation Width {m}
    No,                      !- Vertical Insulation
    ,                        !- Vertical Insulation Material Name
    ,                        !- Vertical Insulation Depth {m}
    Timestep,                !- Simulation Timestep
    1.6,                     !- Geometric Mesh Coefficient
    6;                       !- Mesh Density Parameter


!-   ===========  ALL OBJECTS IN CLASS: SCHEDULETYPELIMITS ===========

ScheduleTypeLimits,
    anynumber;               !- Name

ScheduleTypeLimits,
    ocupacao,                !- Name
    0,                       !- Lower Limit Value
    1,                       !- Upper Limit Value
    Continuous,              !- Numeric Type
    Percent;                 !- Unit Type

ScheduleTypeLimits,
    atividade,               !- Name
    0,                       !- Lower Limit Value
    1000,                    !- Upper Limit Value
    Continuous,              !- Numeric Type
    ActivityLevel;           !- Unit Type

ScheduleTypeLimits,
    anynumber_hvac;          !- Name

ScheduleTypeLimits,
    faixa_temp,              !- Name
    0,                       !- Lower Limit Value
    50,                      !- Upper Limit Value
    Continuous,              !- Numeric Type
    Temperature;             !- Unit Type

ScheduleTypeLimits,
    on_off,                  !- Name
    0,                       !- Lower Limit Value
    1,                       !- Upper Limit Value
    Discrete,                !- Numeric Type
    Control;                 !- Unit Type


!-   ===========  ALL OBJECTS IN CLASS: SCHEDULE:COMPACT ===========

Schedule:Compact,
    sch_ilum_sala,           !- Name
    on_off,                  !- Schedule Type Limits Name
    Through: 12/31,          !- Field 1
    For: AllDays,            !- Field 2
    Until: 16:00,            !- Field 3
    0,                       !- Field 4
    Until: 22:00,            !- Field 5
    1,                       !- Field 6
    Until: 24:00,            !- Field 7
    0;                       !- Field 8

Schedule:Compact,
    sch_ilum_dorm,           !- Name
    on_off,                  !- Schedule Type Limits Name
    Through: 12/31,          !- Field 1
    For: AllDays,            !- Field 2
    Until: 06:00,            !- Field 3
    0,                       !- Field 4
    Until: 08:00,            !- Field 5
    1,                       !- Field 6
    Until: 22:00,            !- Field 7
    0,                       !- Field 8
    Until: 24:00,            !- Field 9
    1;                       !- Field 10

Schedule:Compact,
    sch_ativ_sala,           !- Name
    atividade,               !- Schedule Type Limits Name
    Through: 12/31,          !- Field 1
    For:AllDays,             !- Field 2
    Until: 24:00,            !- Field 3
    108;                     !- Field 4

Schedule:Compact,
    sch_ativ_dorm,           !- Name
    atividade,               !- Schedule Type Limits Name
    Through: 12/31,          !- Field 1
    For:AllDays,             !- Field 2
    Until: 24:00,            !- Field 3
    81;                      !- Field 4

Schedule:Compact,
    sch_ocup_sala,           !- Name
    ocupacao,                !- Schedule Type Limits Name
    Through: 12/31,          !- Field 1
    For: AllDays,            !- Field 2
    Until: 14:00,            !- Field 3
    0,                       !- Field 4
    Until: 18:00,            !- Field 5
    0.5,                     !- Field 6
    Until: 22:00,            !- Field 7
    1,                       !- Field 8
    Until: 24:00,            !- Field 9
    0;                       !- Field 10

Schedule:Compact,
    sch_ocup_dorm,           !- Name
    ocupacao,                !- Schedule Type Limits Name
    Through: 12/31,          !- Field 1
    For: AllDays,            !- Field 2
    Until: 08:00,            !- Field 3
    1,                       !- Field 4
    Until: 22:00,            !- Field 5
    0,                       !- Field 6
    Until 24:00,             !- Field 7
    1;                       !- Field 8

Schedule:Compact,
    sch_equip_sala,          !- Name
    on_off,                  !- Schedule Type Limits Name
    Through: 12/31,          !- Field 1
    For:AllDays,             !- Field 2
    Until: 14:00,            !- Field 3
    0,                       !- Field 4
    Until: 22:00,            !- Field 5
    1,                       !- Field 6
    Until: 24:00,            !- Field 7
    0;                       !- Field 8

Schedule:Compact,
    sch_hvac_sala,           !- Name
    on_off,                  !- Schedule Type Limits Name
    Through: 12/31,          !- Field 1
    For: AllDays,            !- Field 2
    Until: 14:00,            !- Field 3
    0,                       !- Field 4
    Until: 22:00,            !- Field 5
    1,                       !- Field 6
    Until: 24:00,            !- Field 7
    0;                       !- Field 8

Schedule:Compact,
    sch_hvac_dorm,           !- Name
    on_off,                  !- Schedule Type Limits Name
    Through: 12/31,          !- Field 1
    For: AllDays,            !- Field 2
    Until: 08:00,            !- Field 3
    1,                       !- Field 4
    Until: 22:00,            !- Field 5
    0,                       !- Field 6
    Until 24:00,             !- Field 7
    1;                       !- Field 8


!-   ===========  ALL OBJECTS IN CLASS: MATERIAL ===========

Material,
    ref____concreto_10cm_abs05,  !- Name
    Rough,                   !- Roughness
    0.1,                     !- Thickness {m}
    1.75,                    !- Conductivity {W/m-K}
    2200,                    !- Density {kg/m3}
    1000,                    !- Specific Heat {J/kg-K}
    0.9,                     !- Thermal Absorptance
    0.5,                     !- Solar Absorptance
    0.5;                     !- Visible Absorptance

Material,
    ref____concreto_10cm_abs058,  !- Name
    Rough,                   !- Roughness
    0.1,                     !- Thickness {m}
    1.75,                    !- Conductivity {W/m-K}
    2200,                    !- Density {kg/m3}
    1000,                    !- Specific Heat {J/kg-K}
    0.9,                     !- Thermal Absorptance
    0.58,                    !- Solar Absorptance
    0.58;                    !- Visible Absorptance

Material,
    ref____fibro_telha_abs065,  !- Name
    MediumRough,             !- Roughness
    0.006,                   !- Thickness {m}
    0.65,                    !- Conductivity {W/m-K}
    1700,                    !- Density {kg/m3}
    840,                     !- Specific Heat {J/kg-K}
    0.9,                     !- Thermal Absorptance
    0.65,                    !- Solar Absorptance
    0.65;                    !- Visible Absorptance

Material,
    ref____porta_mad_3cm_abs05,  !- Name
    MediumSmooth,            !- Roughness
    0.03,                    !- Thickness {m}
    0.15,                    !- Conductivity {W/m-K}
    650,                     !- Density {kg/m3}
    2300,                    !- Specific Heat {J/kg-K}
    0.9,                     !- Thermal Absorptance
    0.5,                     !- Solar Absorptance
    0.5;                     !- Visible Absorptance


!-   ===========  ALL OBJECTS IN CLASS: MATERIAL:NOMASS ===========

Material:NoMass,
    ref____isolante,         !- Name
    Rough,                   !- Roughness
    0.67,                    !- Thermal Resistance {m2-K/W}
    0.9,                     !- Thermal Absorptance
    0.7,                     !- Solar Absorptance
    0.7;                     !- Visible Absorptance


!-   ===========  ALL OBJECTS IN CLASS: MATERIAL:AIRGAP ===========

Material:AirGap,
    ref____camara_cobertura, !- Name
    0.21;                    !- Thermal Resistance {m2-K/W}


!-   ===========  ALL OBJECTS IN CLASS: WINDOWMATERIAL:SIMPLEGLAZINGSYSTEM ===========

WindowMaterial:SimpleGlazingSystem,
    ref____vidro_u57_shgc087,!- Name
    5.7,                     !- U-Factor {W/m2-K}
    0.87;                    !- Solar Heat Gain Coefficient


!-   ===========  ALL OBJECTS IN CLASS: CONSTRUCTION ===========

Construction,
    Exterior Floor,          !- Name
    ref____concreto_10cm_abs05;  !- Outside Layer

Construction,
    Interior Floor,          !- Name
    ref____concreto_10cm_abs05;  !- Outside Layer

Construction,
    Exterior Wall,           !- Name
    ref____concreto_10cm_abs058;  !- Outside Layer

Construction,
    Interior Wall,           !- Name
    ref____concreto_10cm_abs05;  !- Outside Layer

Construction,
    Exterior Roof,           !- Name
    ref____fibro_telha_abs065,  !- Outside Layer
    ref____camara_cobertura, !- Layer 2
    ref____isolante,         !- Layer 3
    ref____concreto_10cm_abs05;  !- Layer 4

Construction,
    Interior Ceiling,        !- Name
    ref____concreto_10cm_abs05;  !- Outside Layer

Construction,
    Exterior Window,         !- Name
    ref____vidro_u57_shgc087;!- Outside Layer

Construction,
    Exterior Door,           !- Name
    ref____porta_mad_3cm_abs05;  !- Outside Layer

Construction,
    Interior Door,           !- Name
    ref____porta_mad_3cm_abs05;  !- Outside Layer


!-   ===========  ALL OBJECTS IN CLASS: GLOBALGEOMETRYRULES ===========

GlobalGeometryRules,
    UpperLeftCorner,         !- Starting Vertex Position
    Counterclockwise,        !- Vertex Entry Direction
    Relative,                !- Coordinate System
    Relative,                !- Daylighting Reference Point Coordinate System
    Relative;                !- Rectangular Surface Coordinate System


!-   ===========  ALL OBJECTS IN CLASS: ZONE ===========

Zone,
    UH_03_dorm1,             !- Name
    0.0,                     !- Direction of Relative North {deg}
    1.361744,                !- X Origin {m}
    2.11124,                 !- Y Origin {m}
    0.0,                     !- Z Origin {m}
    ,                        !- Type
    1,                       !- Multiplier
    ,                        !- Ceiling Height {m}
    ,                        !- Volume {m3}
    9.455;                   !- Floor Area {m2}

Zone,
    UH_03_dorm2,             !- Name
    0.0,                     !- Direction of Relative North {deg}
    4.43805,                 !- X Origin {m}
    1.056285,                !- Y Origin {m}
    0.0,                     !- Z Origin {m}
    ,                        !- Type
    1,                       !- Multiplier
    ,                        !- Ceiling Height {m}
    ,                        !- Volume {m3}
    9.021;                   !- Floor Area {m2}

Zone,
    UH_03_bwc,               !- Name
    0.0,                     !- Direction of Relative North {deg}
    1.791631,                !- X Origin {m}
    4.925326,                !- Y Origin {m}
    0.0,                     !- Z Origin {m}
    ,                        !- Type
    1,                       !- Multiplier
    ,                        !- Ceiling Height {m}
    ,                        !- Volume {m3}
    3.485;                   !- Floor Area {m2}

Zone,
    UH_03_sala,              !- Name
    0.0,                     !- Direction of Relative North {deg}
    2.760037,                !- X Origin {m}
    4.514906,                !- Y Origin {m}
    0.0,                     !- Z Origin {m}
    ,                        !- Type
    1,                       !- Multiplier
    ,                        !- Ceiling Height {m}
    ,                        !- Volume {m3}
    24.487;                  !- Floor Area {m2}

Zone,
    CORE_01,                 !- Name
    0.0,                     !- Direction of Relative North {deg}
    8.52385,                 !- X Origin {m}
    4.615498,                !- Y Origin {m}
    0.0,                     !- Z Origin {m}
    ,                        !- Type
    1,                       !- Multiplier
    ,                        !- Ceiling Height {m}
    ,                        !- Volume {m3}
    18.5;                    !- Floor Area {m2}

Zone,
    UH_02_dorm2,             !- Name
    0.0,                     !- Direction of Relative North {deg}
    4.43805,                 !- X Origin {m}
    1.056285,                !- Y Origin {m}
    0.0,                     !- Z Origin {m}
    ,                        !- Type
    1,                       !- Multiplier
    ,                        !- Ceiling Height {m}
    ,                        !- Volume {m3}
    9.021;                   !- Floor Area {m2}

Zone,
    UH_02_dorm1,             !- Name
    0.0,                     !- Direction of Relative North {deg}
    1.361744,                !- X Origin {m}
    2.11124,                 !- Y Origin {m}
    0.0,                     !- Z Origin {m}
    ,                        !- Type
    1,                       !- Multiplier
    ,                        !- Ceiling Height {m}
    ,                        !- Volume {m3}
    9.455;                   !- Floor Area {m2}

Zone,
    UH_02_sala,              !- Name
    0.0,                     !- Direction of Relative North {deg}
    2.760037,                !- X Origin {m}
    4.514906,                !- Y Origin {m}
    0.0,                     !- Z Origin {m}
    ,                        !- Type
    1,                       !- Multiplier
    ,                        !- Ceiling Height {m}
    ,                        !- Volume {m3}
    24.487;                  !- Floor Area {m2}

Zone,
    UH_02_bwc,               !- Name
    0.0,                     !- Direction of Relative North {deg}
    1.791631,                !- X Origin {m}
    4.925326,                !- Y Origin {m}
    0.0,                     !- Z Origin {m}
    ,                        !- Type
    1,                       !- Multiplier
    ,                        !- Ceiling Height {m}
    ,                        !- Volume {m3}
    3.485;                   !- Floor Area {m2}

Zone,
    UH_04_sala,              !- Name
    0.0,                     !- Direction of Relative North {deg}
    13.609635,               !- X Origin {m}
    4.971866,                !- Y Origin {m}
    0.0,                     !- Z Origin {m}
    ,                        !- Type
    1,                       !- Multiplier
    ,                        !- Ceiling Height {m}
    ,                        !- Volume {m3}
    24.487;                  !- Floor Area {m2}

Zone,
    UH_04_bwc,               !- Name
    0.0,                     !- Direction of Relative North {deg}
    16.573457,               !- X Origin {m}
    3.223839,                !- Y Origin {m}
    0.0,                     !- Z Origin {m}
    ,                        !- Type
    1,                       !- Multiplier
    ,                        !- Ceiling Height {m}
    ,                        !- Volume {m3}
    3.485;                   !- Floor Area {m2}

Zone,
    UH_04_dorm1,             !- Name
    0.0,                     !- Direction of Relative North {deg}
    15.480677,               !- X Origin {m}
    1.248967,                !- Y Origin {m}
    0.0,                     !- Z Origin {m}
    ,                        !- Type
    1,                       !- Multiplier
    ,                        !- Ceiling Height {m}
    ,                        !- Volume {m3}
    9.455;                   !- Floor Area {m2}

Zone,
    UH_04_dorm2,             !- Name
    0.0,                     !- Direction of Relative North {deg}
    13.573817,               !- X Origin {m}
    1.425363,                !- Y Origin {m}
    0.0,                     !- Z Origin {m}
    ,                        !- Type
    1,                       !- Multiplier
    ,                        !- Ceiling Height {m}
    ,                        !- Volume {m3}
    9.021;                   !- Floor Area {m2}

Zone,
    UH_01_dorm1,             !- Name
    0.0,                     !- Direction of Relative North {deg}
    15.480677,               !- X Origin {m}
    1.248967,                !- Y Origin {m}
    0.0,                     !- Z Origin {m}
    ,                        !- Type
    1,                       !- Multiplier
    ,                        !- Ceiling Height {m}
    ,                        !- Volume {m3}
    9.455;                   !- Floor Area {m2}

Zone,
    UH_01_sala,              !- Name
    0.0,                     !- Direction of Relative North {deg}
    13.609635,               !- X Origin {m}
    4.971866,                !- Y Origin {m}
    0.0,                     !- Z Origin {m}
    ,                        !- Type
    1,                       !- Multiplier
    ,                        !- Ceiling Height {m}
    ,                        !- Volume {m3}
    24.487;                  !- Floor Area {m2}

Zone,
    UH_01_dorm2,             !- Name
    0.0,                     !- Direction of Relative North {deg}
    13.573817,               !- X Origin {m}
    1.425363,                !- Y Origin {m}
    0.0,                     !- Z Origin {m}
    ,                        !- Type
    1,                       !- Multiplier
    ,                        !- Ceiling Height {m}
    ,                        !- Volume {m3}
    9.021;                   !- Floor Area {m2}

Zone,
    UH_01_bwc,               !- Name
    0.0,                     !- Direction of Relative North {deg}
    16.573457,               !- X Origin {m}
    3.223839,                !- Y Origin {m}
    0.0,                     !- Z Origin {m}
    ,                        !- Type
    1,                       !- Multiplier
    ,                        !- Ceiling Height {m}
    ,                        !- Volume {m3}
    3.485;                   !- Floor Area {m2}

Zone,
    UH_08_dorm1,             !- Name
    0.0,                     !- Direction of Relative North {deg}
    15.480677,               !- X Origin {m}
    1.248967,                !- Y Origin {m}
    0.0,                     !- Z Origin {m}
    ,                        !- Type
    1,                       !- Multiplier
    ,                        !- Ceiling Height {m}
    ,                        !- Volume {m3}
    9.455;                   !- Floor Area {m2}

Zone,
    UH_05_dorm1,             !- Name
    0.0,                     !- Direction of Relative North {deg}
    15.480677,               !- X Origin {m}
    1.248967,                !- Y Origin {m}
    0.0,                     !- Z Origin {m}
    ,                        !- Type
    1,                       !- Multiplier
    ,                        !- Ceiling Height {m}
    ,                        !- Volume {m3}
    9.455;                   !- Floor Area {m2}

Zone,
    UH_05_dorm2,             !- Name
    0.0,                     !- Direction of Relative North {deg}
    13.573817,               !- X Origin {m}
    1.425363,                !- Y Origin {m}
    0.0,                     !- Z Origin {m}
    ,                        !- Type
    1,                       !- Multiplier
    ,                        !- Ceiling Height {m}
    ,                        !- Volume {m3}
    9.021;                   !- Floor Area {m2}

Zone,
    UH_06_sala,              !- Name
    0.0,                     !- Direction of Relative North {deg}
    2.760037,                !- X Origin {m}
    4.514906,                !- Y Origin {m}
    0.0,                     !- Z Origin {m}
    ,                        !- Type
    1,                       !- Multiplier
    ,                        !- Ceiling Height {m}
    ,                        !- Volume {m3}
    24.487;                  !- Floor Area {m2}

Zone,
    UH_06_bwc,               !- Name
    0.0,                     !- Direction of Relative North {deg}
    1.791631,                !- X Origin {m}
    4.925326,                !- Y Origin {m}
    0.0,                     !- Z Origin {m}
    ,                        !- Type
    1,                       !- Multiplier
    ,                        !- Ceiling Height {m}
    ,                        !- Volume {m3}
    3.485;                   !- Floor Area {m2}

Zone,
    UH_08_bwc,               !- Name
    0.0,                     !- Direction of Relative North {deg}
    16.573457,               !- X Origin {m}
    3.223839,                !- Y Origin {m}
    0.0,                     !- Z Origin {m}
    ,                        !- Type
    1,                       !- Multiplier
    ,                        !- Ceiling Height {m}
    ,                        !- Volume {m3}
    3.485;                   !- Floor Area {m2}

Zone,
    UH_08_dorm2,             !- Name
    0.0,                     !- Direction of Relative North {deg}
    13.573817,               !- X Origin {m}
    1.425363,                !- Y Origin {m}
    0.0,                     !- Z Origin {m}
    ,                        !- Type
    1,                       !- Multiplier
    ,                        !- Ceiling Height {m}
    ,                        !- Volume {m3}
    9.021;                   !- Floor Area {m2}

Zone,
    UH_05_bwc,               !- Name
    0.0,                     !- Direction of Relative North {deg}
    16.573457,               !- X Origin {m}
    3.223839,                !- Y Origin {m}
    0.0,                     !- Z Origin {m}
    ,                        !- Type
    1,                       !- Multiplier
    ,                        !- Ceiling Height {m}
    ,                        !- Volume {m3}
    3.485;                   !- Floor Area {m2}

Zone,
    UH_07_bwc,               !- Name
    0.0,                     !- Direction of Relative North {deg}
    1.791631,                !- X Origin {m}
    4.925326,                !- Y Origin {m}
    0.0,                     !- Z Origin {m}
    ,                        !- Type
    1,                       !- Multiplier
    ,                        !- Ceiling Height {m}
    ,                        !- Volume {m3}
    3.485;                   !- Floor Area {m2}

Zone,
    UH_07_dorm1,             !- Name
    0.0,                     !- Direction of Relative North {deg}
    1.361744,                !- X Origin {m}
    2.11124,                 !- Y Origin {m}
    0.0,                     !- Z Origin {m}
    ,                        !- Type
    1,                       !- Multiplier
    ,                        !- Ceiling Height {m}
    ,                        !- Volume {m3}
    9.455;                   !- Floor Area {m2}

Zone,
    UH_08_sala,              !- Name
    0.0,                     !- Direction of Relative North {deg}
    13.609635,               !- X Origin {m}
    4.971866,                !- Y Origin {m}
    0.0,                     !- Z Origin {m}
    ,                        !- Type
    1,                       !- Multiplier
    ,                        !- Ceiling Height {m}
    ,                        !- Volume {m3}
    24.487;                  !- Floor Area {m2}

Zone,
    UH_07_sala,              !- Name
    0.0,                     !- Direction of Relative North {deg}
    2.760037,                !- X Origin {m}
    4.514906,                !- Y Origin {m}
    0.0,                     !- Z Origin {m}
    ,                        !- Type
    1,                       !- Multiplier
    ,                        !- Ceiling Height {m}
    ,                        !- Volume {m3}
    24.487;                  !- Floor Area {m2}

Zone,
    UH_05_sala,              !- Name
    0.0,                     !- Direction of Relative North {deg}
    13.609635,               !- X Origin {m}
    4.971866,                !- Y Origin {m}
    0.0,                     !- Z Origin {m}
    ,                        !- Type
    1,                       !- Multiplier
    ,                        !- Ceiling Height {m}
    ,                        !- Volume {m3}
    24.487;                  !- Floor Area {m2}

Zone,
    UH_06_dorm2,             !- Name
    0.0,                     !- Direction of Relative North {deg}
    4.43805,                 !- X Origin {m}
    1.056285,                !- Y Origin {m}
    0.0,                     !- Z Origin {m}
    ,                        !- Type
    1,                       !- Multiplier
    ,                        !- Ceiling Height {m}
    ,                        !- Volume {m3}
    9.021;                   !- Floor Area {m2}

Zone,
    UH_06_dorm1,             !- Name
    0.0,                     !- Direction of Relative North {deg}
    1.361744,                !- X Origin {m}
    2.11124,                 !- Y Origin {m}
    0.0,                     !- Z Origin {m}
    ,                        !- Type
    1,                       !- Multiplier
    ,                        !- Ceiling Height {m}
    ,                        !- Volume {m3}
    9.455;                   !- Floor Area {m2}

Zone,
    UH_07_dorm2,             !- Name
    0.0,                     !- Direction of Relative North {deg}
    4.43805,                 !- X Origin {m}
    1.056285,                !- Y Origin {m}
    0.0,                     !- Z Origin {m}
    ,                        !- Type
    1,                       !- Multiplier